<?xml version="1.0" encoding="UTF-8"?>

<!-- generated on 2022-05-04 12:38:42 by Eclipse SUMO netconvert Version 1.12.0
<configuration xmlns:xsi="http://www.w3.org/2001/XMLSchema-instance" xsi:noNamespaceSchemaLocation="http://sumo.dlr.de/xsd/netconvertConfiguration.xsd">

    <input>
        <sumo-net-file value="KH_orig.net.xml"/>
    </input>

    <output>
        <plain-output-prefix value="KH"/>
    </output>

    <processing>
        <geometry.min-radius.fix.railways value="false"/>
        <geometry.max-grade.fix value="false"/>
        <offset.disable-normalization value="true"/>
        <lefthand value="false"/>
    </processing>

    <junctions>
        <no-turnarounds value="true"/>
        <junctions.corner-detail value="5"/>
        <junctions.limit-turn-speed value="5.5"/>
        <rectangular-lane-cut value="false"/>
    </junctions>

    <pedestrian>
        <walkingareas value="false"/>
    </pedestrian>

    <report>
        <aggregate-warnings value="5"/>
    </report>

</configuration>
-->

<connections version="1.9" xmlns:xsi="http://www.w3.org/2001/XMLSchema-instance" xsi:noNamespaceSchemaLocation="http://sumo.dlr.de/xsd/connections_file.xsd">
    <connection from="-E5" to="E3" fromLane="0" toLane="0"/>

    <connection from="E0" to="-E5" fromLane="0" toLane="0"/>
    <connection from="E0" to="E1" fromLane="0" toLane="0"/>

    <connection from="E1" to="E2" fromLane="0" toLane="0"/>

    <connection from="E2" to="E5" fromLane="0" toLane="0"/>
    <connection from="E2" to="E3" fromLane="0" toLane="0"/>

    <connection from="E3" to="E4" fromLane="0" toLane="0"/>
    <connection from="E3" to="E0" fromLane="0" toLane="0"/>

    <connection from="E4" to="E2" fromLane="0" toLane="0"/>

    <connection from="E5" to="E1" fromLane="0" toLane="0"/>

</connections>
