<?xml version="1.0" encoding="UTF-8"?>

<!-- generated on 2022-05-04 13:09:25 by Eclipse SUMO netconvert Version 1.12.0
<configuration xmlns:xsi="http://www.w3.org/2001/XMLSchema-instance" xsi:noNamespaceSchemaLocation="http://sumo.dlr.de/xsd/netconvertConfiguration.xsd">

    <input>
        <node-files value="KH.nod.xml"/>
        <edge-files value="KH.edg.xml"/>
    </input>

    <output>
        <output-file value="KH.net.xml"/>
    </output>

    <report>
        <aggregate-warnings value="5"/>
    </report>

</configuration>
-->

<net version="1.9" junctionCornerDetail="5" limitTurnSpeed="5.50" xmlns:xsi="http://www.w3.org/2001/XMLSchema-instance" xsi:noNamespaceSchemaLocation="http://sumo.dlr.de/xsd/net_file.xsd">

    <location netOffset="37.57,-14.37" convBoundary="0.00,0.00,94.76,77.40" origBoundary="-10000000000.00,-10000000000.00,10000000000.00,10000000000.00" projParameter="!"/>

    <edge id=":J3_0" function="internal">
        <lane id=":J3_0_0" index="0" speed="4.07" length="4.48" shape="43.16,71.67 44.35,72.43 45.18,72.47 45.66,71.79 45.78,70.39"/>
    </edge>
    <edge id=":J4_0" function="internal">
        <lane id=":J4_0_0" index="0" speed="5.46" length="10.21" shape="81.73,44.57 85.09,44.57 86.61,43.71 86.27,42.01 84.08,39.45"/>
    </edge>
    <edge id=":J4_1" function="internal">
        <lane id=":J4_1_0" index="0" speed="3.65" length="4.67" shape="81.73,44.57 82.84,45.49 83.16,46.32 82.69,47.08 81.42,47.76"/>
    </edge>
    <edge id=":J5_0" function="internal">
        <lane id=":J5_0_0" index="0" speed="5.54" length="9.45" shape="43.93,10.66 43.48,7.76 42.36,6.36 40.58,6.47 38.12,8.07"/>
    </edge>
    <edge id=":J5_1" function="internal">
        <lane id=":J5_1_0" index="0" speed="7.86" length="12.55" shape="49.34,6.18 47.06,4.79 44.43,4.64 41.45,5.73 38.12,8.07"/>
    </edge>
    <edge id=":J6_0" function="internal">
        <lane id=":J6_0_0" index="0" speed="5.48" length="10.65" shape="14.28,41.18 10.69,41.15 9.16,41.97 9.66,43.64 12.21,46.16"/>
    </edge>
    <edge id=":J6_1" function="internal">
        <lane id=":J6_1_0" index="0" speed="3.65" length="1.44" shape="14.28,41.18 13.16,40.26"/>
    </edge>
    <edge id=":J6_4" function="internal">
        <lane id=":J6_4_0" index="0" speed="3.65" length="3.23" shape="13.16,40.26 12.84,39.43 13.32,38.67 14.59,37.99"/>
    </edge>
    <edge id=":J6_2" function="internal">
        <lane id=":J6_2_0" index="0" speed="5.94" length="11.67" shape="9.88,31.92 7.94,34.19 8.08,35.95 10.30,37.22 14.59,37.99"/>
    </edge>
    <edge id=":J6_3" function="internal">
        <lane id=":J6_3_0" index="0" speed="8.22" length="17.09" shape="9.88,31.92 7.26,35.15 6.77,38.60 8.42,42.27 12.21,46.16"/>
    </edge>

    <edge id="-E5" from="J4" to="J6" priority="-1">
        <lane id="-E5_0" index="0" speed="13.89" length="67.46" shape="81.42,47.76 14.28,41.18"/>
    </edge>
    <edge id="E1" from="J4" to="J5" priority="-1">
        <lane id="E1_0" index="0" speed="13.89" length="48.11" shape="84.08,39.45 49.34,6.18"/>
    </edge>
    <edge id="E2" from="J5" to="J6" priority="-1">
        <lane id="E2_0" index="0" speed="13.89" length="36.96" shape="38.12,8.07 9.88,31.92"/>
    </edge>
    <edge id="E3" from="J6" to="J3" priority="-1">
        <lane id="E3_0" index="0" speed="13.89" length="40.12" shape="12.21,46.16 43.16,71.67"/>
    </edge>
    <edge id="E4" from="J3" to="J5" priority="-1">
        <lane id="E4_0" index="0" speed="13.89" length="59.75" shape="45.78,70.39 43.93,10.66"/>
    </edge>
    <edge id="E5" from="J6" to="J4" priority="-1">
        <lane id="E5_0" index="0" speed="13.89" length="67.46" shape="14.59,37.99 81.73,44.57"/>
    </edge>

    <junction id="J3" type="priority" x="47.60" y="77.40" incLanes="E3_0" intLanes=":J3_0_0" shape="47.38,70.34 44.18,70.44 42.15,72.91 43.81,74.08 45.15,74.62 46.18,74.51 46.90,73.76 47.30,72.37">
        <request index="0" response="0" foes="0" cont="0"/>
    </junction>
    <junction id="J4" type="priority" x="94.76" y="47.46" incLanes="E5_0" intLanes=":J4_0_0 :J4_1_0" shape="85.19,38.29 82.98,40.61 84.14,42.10 84.15,42.58 83.77,42.89 83.02,43.02 81.88,42.98 81.26,49.35 86.16,49.51 89.36,48.87 90.86,47.43 90.67,45.19 88.78,42.14">
        <request index="0" response="00" foes="00" cont="0"/>
        <request index="1" response="00" foes="00" cont="0"/>
    </junction>
    <junction id="J5" type="priority" x="45.20" y="0.00" incLanes="E4_0 E1_0" intLanes=":J5_0_0 :J5_1_0" shape="42.33,10.71 45.53,10.62 45.75,7.56 46.11,6.77 46.65,6.47 47.35,6.66 48.23,7.33 50.44,5.02 48.62,3.68 46.63,2.99 44.48,2.97 42.18,3.60 39.71,4.90 37.09,6.85 39.15,9.30 40.86,8.31 41.47,8.36 41.92,8.78 42.21,9.56">
        <request index="0" response="00" foes="10" cont="0"/>
        <request index="1" response="01" foes="01" cont="0"/>
    </junction>
    <junction id="J6" type="priority" x="0.00" y="38.17" incLanes="-E5_0 E2_0" intLanes=":J6_0_0 :J6_4_0 :J6_2_0 :J6_3_0" shape="11.19,47.39 13.23,44.92 11.95,43.55 11.91,43.11 12.25,42.84 12.99,42.72 14.12,42.77 14.74,36.40 12.72,36.12 11.26,35.74 10.34,35.25 9.98,34.65 10.17,33.95 10.91,33.14 8.85,30.70 6.45,33.24 5.18,35.87 5.01,38.61 5.96,41.44 8.02,44.37">
        <request index="0" response="0000" foes="1000" cont="0"/>
        <request index="1" response="0100" foes="0100" cont="1"/>
        <request index="2" response="0000" foes="0010" cont="0"/>
        <request index="3" response="0001" foes="0001" cont="0"/>
    </junction>

    <junction id=":J6_4_0" type="internal" x="13.16" y="40.26" incLanes=":J6_1_0 E2_0" intLanes=":J6_2_0"/>

    <connection from="-E5" to="E3" fromLane="0" toLane="0" via=":J6_0_0" dir="r" state="M"/>
    <connection from="-E5" to="E5" fromLane="0" toLane="0" via=":J6_1_0" dir="t" state="m"/>
    <connection from="E1" to="E2" fromLane="0" toLane="0" via=":J5_1_0" dir="r" state="m"/>
    <connection from="E2" to="E5" fromLane="0" toLane="0" via=":J6_2_0" dir="r" state="M"/>
    <connection from="E2" to="E3" fromLane="0" toLane="0" via=":J6_3_0" dir="r" state="m"/>
    <connection from="E3" to="E4" fromLane="0" toLane="0" via=":J3_0_0" dir="r" state="M"/>
    <connection from="E4" to="E2" fromLane="0" toLane="0" via=":J5_0_0" dir="r" state="M"/>
    <connection from="E5" to="E1" fromLane="0" toLane="0" via=":J4_0_0" dir="r" state="M"/>
    <connection from="E5" to="-E5" fromLane="0" toLane="0" via=":J4_1_0" dir="t" state="M"/>

    <connection from=":J3_0" to="E4" fromLane="0" toLane="0" dir="r" state="M"/>
    <connection from=":J4_0" to="E1" fromLane="0" toLane="0" dir="r" state="M"/>
    <connection from=":J4_1" to="-E5" fromLane="0" toLane="0" dir="t" state="M"/>
    <connection from=":J5_0" to="E2" fromLane="0" toLane="0" dir="r" state="M"/>
    <connection from=":J5_1" to="E2" fromLane="0" toLane="0" dir="r" state="M"/>
    <connection from=":J6_0" to="E3" fromLane="0" toLane="0" dir="r" state="M"/>
    <connection from=":J6_1" to="E5" fromLane="0" toLane="0" via=":J6_4_0" dir="t" state="m"/>
    <connection from=":J6_4" to="E5" fromLane="0" toLane="0" dir="t" state="M"/>
    <connection from=":J6_2" to="E5" fromLane="0" toLane="0" dir="r" state="M"/>
    <connection from=":J6_3" to="E3" fromLane="0" toLane="0" dir="r" state="M"/>

</net>
