<?xml version="1.0" encoding="UTF-8"?>

<!-- generated on 2022-05-04 13:09:05 by Eclipse SUMO GUI Version 1.12.0
-->

<configuration xmlns:xsi="http://www.w3.org/2001/XMLSchema-instance" xsi:noNamespaceSchemaLocation="http://sumo.dlr.de/xsd/sumoConfiguration.xsd">

    <input>
        <net-file value="/home/ahmed/Dev/street_plans/KH.net.xml"/>
        <route-files value="/home/ahmed/Dev/street_plans/KH.rou.xml"/>
    </input>

</configuration>
