<?xml version="1.0" encoding="UTF-8"?>
<edges version="1.3" xmlns:xsi="http://www.w3.org/2001/XMLSchema-instance" xsi:noNamespaceSchemaLocation="http://sumo.dlr.de/xsd/edges_file.xsd">
	<edge id="-E5" from="J4" to="J6" priority="-1" numLanes="1" speed="13.89"/>
	<edge id="E0" from="J3" to="J4" priority="-1" numLanes="1" speed="13.89"/>
	<edge id="E1" from="J4" to="J5" priority="-1" numLanes="1" speed="13.89"/>
	<edge id="E2" from="J5" to="J6" priority="-1" numLanes="1" speed="13.89"/>
	<edge id="E3" from="J6" to="J3" priority="-1" numLanes="1" speed="13.89"/>
	<edge id="E4" from="J3" to="J5" priority="-1" numLanes="1" speed="13.89"/>
	<edge id="E5" from="J6" to="J4" priority="-1" numLanes="1" speed="13.89"/>
</edges>