<?xml version="1.0" encoding="UTF-8"?>

<!-- generated on 2022-03-30 00:51:42 by Eclipse SUMO netedit Version 1.12.0
<configuration xmlns:xsi="http://www.w3.org/2001/XMLSchema-instance" xsi:noNamespaceSchemaLocation="http://sumo.dlr.de/xsd/netconvertConfiguration.xsd">

    <output>
        <output-file value="/home/ahmed/Dev/street_plans/KH_orig.net.xml"/>
    </output>

    <processing>
        <offset.disable-normalization value="true"/>
    </processing>

    <junctions>
        <no-turnarounds value="true"/>
    </junctions>

    <report>
        <aggregate-warnings value="5"/>
    </report>

</configuration>
-->

<net version="1.9" junctionCornerDetail="5" limitTurnSpeed="5.50" xmlns:xsi="http://www.w3.org/2001/XMLSchema-instance" xsi:noNamespaceSchemaLocation="http://sumo.dlr.de/xsd/net_file.xsd">

    <location netOffset="0.00,0.00" convBoundary="-37.57,14.37,57.19,91.77" origBoundary="10000000000.00,10000000000.00,-10000000000.00,-10000000000.00" projParameter="!"/>

    <edge id=":J3_0" function="internal">
        <lane id=":J3_0_0" index="0" speed="5.51" length="9.56" shape="2.51,83.50 5.04,85.12 6.81,85.21 7.83,83.75 8.09,80.76"/>
    </edge>
    <edge id=":J3_1" function="internal">
        <lane id=":J3_1_0" index="0" speed="8.73" length="12.96" shape="2.51,83.50 6.10,86.09 9.24,87.58 11.92,87.97 14.15,87.26"/>
    </edge>
    <edge id=":J4_0" function="internal">
        <lane id=":J4_0_0" index="0" speed="5.46" length="10.24" shape="44.11,58.94 47.50,58.94 49.03,58.08 48.70,56.37 46.51,53.82"/>
    </edge>
    <edge id=":J4_1" function="internal">
        <lane id=":J4_1_0" index="0" speed="5.46" length="10.23" shape="45.11,67.60 47.76,65.52 48.43,63.91 47.11,62.78 43.80,62.12"/>
    </edge>
    <edge id=":J4_2" function="internal">
        <lane id=":J4_2_0" index="0" speed="8.01" length="16.86" shape="45.11,67.60 48.76,64.48 50.21,61.14 49.46,57.59 46.51,53.82"/>
    </edge>
    <edge id=":J5_0" function="internal">
        <lane id=":J5_0_0" index="0" speed="5.54" length="9.45" shape="6.36,25.04 5.92,22.13 4.80,20.73 3.01,20.84 0.55,22.45"/>
    </edge>
    <edge id=":J5_1" function="internal">
        <lane id=":J5_1_0" index="0" speed="7.86" length="12.55" shape="11.77,20.55 9.49,19.16 6.86,19.01 3.88,20.11 0.55,22.45"/>
    </edge>
    <edge id=":J6_0" function="internal">
        <lane id=":J6_0_0" index="0" speed="5.48" length="10.65" shape="-23.30,55.55 -26.88,55.52 -28.42,56.35 -27.91,58.01 -25.36,60.53"/>
    </edge>
    <edge id=":J6_1" function="internal">
        <lane id=":J6_1_0" index="0" speed="5.94" length="11.67" shape="-27.69,46.30 -29.63,48.56 -29.49,50.33 -27.28,51.60 -22.99,52.37"/>
    </edge>
    <edge id=":J6_2" function="internal">
        <lane id=":J6_2_0" index="0" speed="8.22" length="17.09" shape="-27.69,46.30 -30.32,49.52 -30.80,52.97 -29.15,56.64 -25.36,60.53"/>
    </edge>

    <edge id="-E5" from="J4" to="J6" priority="-1">
        <lane id="-E5_0" index="0" speed="13.89" length="67.42" shape="43.80,62.12 -23.30,55.55"/>
    </edge>
    <edge id="E0" from="J3" to="J4" priority="-1">
        <lane id="E0_0" index="0" speed="13.89" length="36.67" shape="14.15,87.26 45.11,67.60"/>
    </edge>
    <edge id="E1" from="J4" to="J5" priority="-1">
        <lane id="E1_0" index="0" speed="13.89" length="48.10" shape="46.51,53.82 11.77,20.55"/>
    </edge>
    <edge id="E2" from="J5" to="J6" priority="-1">
        <lane id="E2_0" index="0" speed="13.89" length="36.97" shape="0.55,22.45 -27.69,46.30"/>
    </edge>
    <edge id="E3" from="J6" to="J3" priority="-1">
        <lane id="E3_0" index="0" speed="13.89" length="36.11" shape="-25.36,60.53 2.51,83.50"/>
    </edge>
    <edge id="E4" from="J3" to="J5" priority="-1">
        <lane id="E4_0" index="0" speed="13.89" length="55.75" shape="8.09,80.76 6.36,25.04"/>
    </edge>
    <edge id="E5" from="J6" to="J4" priority="-1">
        <lane id="E5_0" index="0" speed="13.89" length="67.42" shape="-22.99,52.37 44.11,58.94"/>
    </edge>

    <junction id="J3" type="priority" x="10.03" y="91.77" incLanes="E3_0" intLanes=":J3_0_0 :J3_1_0" shape="15.01,88.61 13.29,85.90 11.39,86.28 10.70,85.68 10.19,84.55 9.85,82.89 9.69,80.71 6.49,80.81 6.21,82.75 5.81,83.17 5.23,83.23 4.47,82.93 3.53,82.26 1.49,84.73 4.24,86.79 6.79,88.29 9.14,89.22 11.29,89.58 13.25,89.38">
        <request index="0" response="00" foes="00" cont="0"/>
        <request index="1" response="00" foes="00" cont="0"/>
    </junction>
    <junction id="J4" type="priority" x="57.19" y="61.83" incLanes="E5_0 E0_0" intLanes=":J4_0_0 :J4_1_0 :J4_2_0" shape="47.62,52.66 45.40,54.97 46.56,56.47 46.56,56.95 46.18,57.26 45.42,57.39 44.27,57.35 43.65,63.72 45.48,64.17 45.79,64.54 45.68,65.01 45.17,65.58 44.25,66.25 45.96,68.95 49.13,66.52 51.14,63.97 51.99,61.32 51.69,58.55 50.23,55.66">
        <request index="0" response="000" foes="100" cont="0"/>
        <request index="1" response="000" foes="000" cont="0"/>
        <request index="2" response="001" foes="001" cont="0"/>
    </junction>
    <junction id="J5" type="priority" x="7.63" y="14.37" incLanes="E4_0 E1_0" intLanes=":J5_0_0 :J5_1_0" shape="4.76,25.09 7.96,24.99 8.18,21.93 8.55,21.14 9.08,20.84 9.79,21.03 10.66,21.70 12.88,19.39 11.05,18.05 9.06,17.36 6.92,17.34 4.61,17.97 2.15,19.27 -0.48,21.22 1.58,23.67 3.30,22.68 3.91,22.73 4.36,23.15 4.64,23.94">
        <request index="0" response="00" foes="10" cont="0"/>
        <request index="1" response="01" foes="01" cont="0"/>
    </junction>
    <junction id="J6" type="priority" x="-37.57" y="52.54" incLanes="-E5_0 E2_0" intLanes=":J6_0_0 :J6_1_0 :J6_2_0" shape="-26.38,61.77 -24.35,59.30 -25.62,57.93 -25.67,57.49 -25.32,57.21 -24.58,57.09 -23.45,57.14 -22.83,50.77 -24.85,50.50 -26.32,50.11 -27.23,49.62 -27.59,49.03 -27.40,48.33 -26.66,47.52 -28.73,45.07 -31.12,47.61 -32.40,50.25 -32.56,52.98 -31.62,55.81 -29.56,58.74">
        <request index="0" response="000" foes="100" cont="0"/>
        <request index="1" response="000" foes="000" cont="0"/>
        <request index="2" response="001" foes="001" cont="0"/>
    </junction>

    <connection from="-E5" to="E3" fromLane="0" toLane="0" via=":J6_0_0" dir="r" state="M"/>
    <connection from="E0" to="-E5" fromLane="0" toLane="0" via=":J4_1_0" dir="r" state="M"/>
    <connection from="E0" to="E1" fromLane="0" toLane="0" via=":J4_2_0" dir="r" state="m"/>
    <connection from="E1" to="E2" fromLane="0" toLane="0" via=":J5_1_0" dir="r" state="m"/>
    <connection from="E2" to="E5" fromLane="0" toLane="0" via=":J6_1_0" dir="r" state="M"/>
    <connection from="E2" to="E3" fromLane="0" toLane="0" via=":J6_2_0" dir="r" state="m"/>
    <connection from="E3" to="E4" fromLane="0" toLane="0" via=":J3_0_0" dir="r" state="M"/>
    <connection from="E3" to="E0" fromLane="0" toLane="0" via=":J3_1_0" dir="R" state="M"/>
    <connection from="E4" to="E2" fromLane="0" toLane="0" via=":J5_0_0" dir="r" state="M"/>
    <connection from="E5" to="E1" fromLane="0" toLane="0" via=":J4_0_0" dir="r" state="M"/>

    <connection from=":J3_0" to="E4" fromLane="0" toLane="0" dir="r" state="M"/>
    <connection from=":J3_1" to="E0" fromLane="0" toLane="0" dir="R" state="M"/>
    <connection from=":J4_0" to="E1" fromLane="0" toLane="0" dir="r" state="M"/>
    <connection from=":J4_1" to="-E5" fromLane="0" toLane="0" dir="r" state="M"/>
    <connection from=":J4_2" to="E1" fromLane="0" toLane="0" dir="r" state="M"/>
    <connection from=":J5_0" to="E2" fromLane="0" toLane="0" dir="r" state="M"/>
    <connection from=":J5_1" to="E2" fromLane="0" toLane="0" dir="r" state="M"/>
    <connection from=":J6_0" to="E3" fromLane="0" toLane="0" dir="r" state="M"/>
    <connection from=":J6_1" to="E5" fromLane="0" toLane="0" dir="r" state="M"/>
    <connection from=":J6_2" to="E3" fromLane="0" toLane="0" dir="r" state="M"/>

</net>
